Version 4
SHEET 1 880 680
WIRE 112 48 64 48
WIRE 352 48 304 48
WIRE 112 80 64 80
WIRE 112 192 64 192
WIRE 352 192 304 192
WIRE 112 224 64 224
FLAG 352 48 voltage_ref_d
IOPIN 352 48 Out
FLAG 352 192 voltage_ref_q
IOPIN 352 192 Out
FLAG 64 48 current_ref_d
IOPIN 64 48 In
FLAG 64 192 current_ref_q
IOPIN 64 192 In
FLAG 64 80 current_fbk_d
IOPIN 64 80 In
FLAG 64 224 current_fbk_q
IOPIN 64 224 In
SYMBOL pi 208 64 R0
SYMATTR InstName X1
SYMATTR SpiceLine Kp={Kp};Ki={Ki}
SYMBOL pi 208 208 R0
SYMATTR InstName X2
SYMATTR SpiceLine Kp={Kp};Ki={Ki}
TEXT -128 312 Left 2 !.param Kp=1\n.param Ki=1
