Version 4
SHEET 1 880 680
WIRE 48 80 -16 80
WIRE 160 80 112 80
WIRE 256 80 224 80
WIRE 48 112 -16 112
WIRE 160 112 112 112
WIRE 256 112 224 112
WIRE 256 144 224 144
WIRE 0 192 -16 192
WIRE 80 192 80 160
WIRE 80 192 64 192
FLAG 256 80 u
IOPIN 256 80 Out
FLAG 256 112 v
IOPIN 256 112 Out
FLAG 256 144 w
IOPIN 256 144 Out
FLAG -16 80 d
IOPIN -16 80 In
FLAG -16 112 q
IOPIN -16 112 In
FLAG -16 192 theta
IOPIN -16 192 In
SYMBOL xyRotation 48 32 R0
SYMATTR InstName U2
SYMBOL Proportional 16 224 R0
SYMATTR Value K=-1
SYMATTR InstName U3
SYMBOL ab-uvwTransformation 160 32 R0
SYMATTR InstName U1
