Version 4
SHEET 1 880 680
WIRE 48 80 16 80
WIRE 160 80 112 80
WIRE 256 80 224 80
WIRE 48 112 16 112
WIRE 160 112 112 112
WIRE 256 112 224 112
WIRE 48 144 16 144
WIRE 192 208 192 160
WIRE 192 208 16 208
FLAG 16 80 u
IOPIN 16 80 In
FLAG 16 112 v
IOPIN 16 112 In
FLAG 16 144 w
IOPIN 16 144 In
FLAG 256 80 d
IOPIN 256 80 Out
FLAG 256 112 q
IOPIN 256 112 Out
FLAG 16 208 theta
IOPIN 16 208 In
SYMBOL uvw-aboTransformation 48 32 R0
SYMATTR InstName U1
SYMBOL xyRotation 160 32 R0
SYMATTR InstName U2
