Version 4
SHEET 1 880 680
WIRE -336 16 -384 16
WIRE -256 16 -272 16
WIRE -224 16 -256 16
WIRE -112 16 -160 16
WIRE 0 16 -48 16
WIRE -304 48 -384 48
WIRE -256 96 -256 16
WIRE -224 96 -256 96
WIRE -80 96 -80 48
WIRE -80 96 -160 96
FLAG -384 48 PV
IOPIN -384 48 In
FLAG -384 16 SP
IOPIN -384 16 In
FLAG 0 16 OUT
IOPIN 0 16 Out
SYMBOL Proportional -208 48 R0
SYMATTR InstName U1
SYMATTR Value K={Kp}
SYMBOL LimitedIntegral -208 128 R0
SYMATTR InstName U2
SYMATTR Value T={1/Ki}
SYMBOL sub -320 48 R0
SYMATTR InstName U3
SYMBOL add -96 48 R0
SYMATTR InstName U4
TEXT -432 208 Left 2 !.param Kp=1\n.param Ki=1
