Version 4
SHEET 1 880 680
WIRE 176 144 160 144
WIRE 256 144 240 144
FLAG 160 144 pos
IOPIN 160 144 In
FLAG 256 144 out
IOPIN 256 144 Out
SYMBOL Proportional 192 176 R0
SYMATTR InstName U1
