Version 4
SHEET 1 880 680
WIRE -32 80 -64 80
WIRE 64 80 32 80
WIRE -32 144 -64 144
WIRE 64 144 32 144
WIRE -32 208 -64 208
WIRE 64 208 32 208
FLAG -64 80 i_raw_a
IOPIN -64 80 In
FLAG -64 144 i_raw_b
IOPIN -64 144 In
FLAG -64 208 i_raw_c
IOPIN -64 208 In
FLAG 64 80 i_a
IOPIN 64 80 Out
FLAG 64 144 i_b
IOPIN 64 144 Out
FLAG 64 208 i_c
IOPIN 64 208 Out
SYMBOL Proportional -16 112 R0
SYMATTR InstName U1
SYMBOL Proportional -16 176 R0
SYMATTR InstName U2
SYMBOL Proportional -16 240 R0
SYMATTR InstName U3
