Version 4
SHEET 1 880 680
WIRE 80 176 64 176
WIRE 160 176 144 176
FLAG 64 176 vdc_raw
IOPIN 64 176 In
FLAG 160 176 vdc
IOPIN 160 176 Out
SYMBOL Proportional 96 208 R0
SYMATTR InstName U1
