Version 4
SHEET 1 880 680
WIRE 352 96 272 96
WIRE 128 160 112 160
WIRE 272 160 272 96
WIRE 272 160 192 160
FLAG 80 32 w_rotor
IOPIN 80 32 In
FLAG 352 96 angle_stator
IOPIN 352 96 Out
FLAG 80 64 id_ref
IOPIN 80 64 In
FLAG 80 96 iq_ref
IOPIN 80 96 In
SYMBOL Constant 48 160 R0
SYMATTR Value K=377
SYMATTR InstName U1
SYMBOL Integral 144 192 R0
SYMATTR InstName U2
SYMATTR Value T=-1
TEXT -48 296 Left 2 !.param poles=2\n.param l_rotor=1\n.param r_rotor=1
