Version 4
SHEET 1 880 680
WIRE 96 160 80 160
WIRE 176 160 160 160
FLAG 80 160 torque_ref
IOPIN 80 160 In
FLAG 176 160 iq_ref
IOPIN 176 160 Out
SYMBOL Proportional 112 192 R0
SYMATTR InstName U1
