Version 4
SHEET 1 1328 680
WIRE 944 80 896 80
WIRE 0 96 -32 96
WIRE 384 96 0 96
WIRE 480 96 448 96
WIRE 592 96 544 96
WIRE 736 96 656 96
WIRE 944 112 896 112
WIRE 944 144 896 144
WIRE 80 160 -32 160
WIRE 384 160 80 160
WIRE 480 160 448 160
WIRE 592 160 544 160
WIRE 736 160 656 160
WIRE 944 176 896 176
WIRE 416 192 416 128
WIRE 512 192 512 128
WIRE 944 208 896 208
WIRE 160 224 -32 224
WIRE 384 224 160 224
WIRE 480 224 448 224
WIRE 592 224 544 224
WIRE 736 224 656 224
WIRE 944 240 896 240
WIRE 416 256 416 192
WIRE 512 256 512 192
WIRE 80 336 80 160
WIRE 160 336 160 224
WIRE 0 368 0 96
WIRE 48 368 0 368
WIRE 224 368 208 368
WIRE 304 368 288 368
WIRE 416 368 416 256
WIRE 416 368 368 368
WIRE 80 400 80 336
WIRE 160 400 160 336
WIRE 0 432 0 368
WIRE 48 432 0 432
WIRE 256 432 256 400
WIRE 256 432 208 432
WIRE 512 496 512 256
WIRE 512 496 -32 496
FLAG -32 96 mod_ref_a
IOPIN -32 96 In
FLAG -32 160 mod_ref_b
IOPIN -32 160 In
FLAG -32 224 mod_ref_c
IOPIN -32 224 In
FLAG -32 496 dc_voltage
IOPIN -32 496 In
FLAG 944 80 ap
IOPIN 944 80 Out
FLAG 944 112 an
IOPIN 944 112 Out
FLAG 944 144 bp
IOPIN 944 144 Out
FLAG 944 176 bn
IOPIN 944 176 Out
FLAG 944 208 cp
IOPIN 944 208 Out
FLAG 944 240 cn
IOPIN 944 240 Out
SYMBOL max 64 336 M180
SYMATTR InstName U1
SYMBOL max 144 336 M180
SYMATTR InstName U2
SYMBOL min 64 400 M180
SYMATTR InstName U3
SYMBOL min 144 400 M180
SYMATTR InstName U4
SYMBOL sub 400 128 R0
SYMATTR InstName U5
SYMBOL sub 400 192 R0
SYMATTR InstName U6
SYMBOL sub 400 256 R0
SYMATTR InstName U7
SYMBOL add 240 400 R0
SYMATTR InstName U8
SYMBOL Proportional 320 400 R0
SYMATTR Value K=0.5
SYMATTR InstName U9
SYMBOL div 496 128 R0
SYMATTR InstName U10
SYMBOL div 496 192 R0
SYMATTR InstName U12
SYMBOL div 496 256 R0
SYMATTR InstName U13
SYMBOL 3PhaseComplementaryPWM 736 32 R0
SYMATTR Value Vin1=0 Vin2=1 Tperiod={Tpwm} Tdead={Tdead}
SYMATTR InstName U11
SYMBOL addk 608 128 R0
SYMATTR Value k=0.5
SYMATTR InstName U14
SYMBOL addk 608 192 R0
SYMATTR Value k=0.5
SYMATTR InstName U15
SYMBOL addk 608 256 R0
SYMATTR Value k=0.5
SYMATTR InstName U16
TEXT -304 600 Left 2 !.param Tpwm=250u\n.param Tdead=1u
