Version 4
SHEET 1 880 680
WIRE 112 128 96 128
WIRE 192 128 176 128
WIRE 112 160 96 160
FLAG 96 128 x
IOPIN 96 128 In
FLAG 96 160 y
IOPIN 96 160 In
FLAG 192 128 amp
IOPIN 192 128 Out
SYMBOL xy-rpTransformation 112 80 R0
SYMATTR InstName U1
