Version 4
SHEET 1 880 680
WIRE 208 112 160 112
WIRE 464 112 208 112
WIRE 624 112 560 112
WIRE 176 144 160 144
WIRE 464 144 176 144
WIRE 624 144 560 144
WIRE 208 192 208 112
WIRE 224 192 208 192
WIRE 352 192 320 192
WIRE 176 224 176 144
WIRE 224 224 176 224
WIRE 352 240 352 192
WIRE 320 272 160 272
WIRE 400 272 384 272
WIRE 512 272 512 192
WIRE 512 272 480 272
WIRE 432 320 432 304
WIRE 432 320 336 320
FLAG 160 112 x1
IOPIN 160 112 In
FLAG 160 144 y1
IOPIN 160 144 In
FLAG 624 112 x2
IOPIN 624 112 Out
FLAG 624 144 y2
IOPIN 624 144 Out
FLAG 160 272 max
IOPIN 160 272 In
SYMBOL xy_scale 464 64 R0
SYMATTR InstName X1
SYMBOL Constant 272 320 R0
SYMATTR InstName U1
SYMBOL xy_amplitude 224 144 R0
SYMATTR InstName U2
SYMBOL div 336 240 M180
SYMATTR InstName U3
SYMBOL min 416 304 R0
SYMATTR InstName U4
