Version 4
SHEET 1 880 680
WIRE 224 112 160 112
WIRE 352 112 288 112
WIRE 224 192 160 192
WIRE 352 192 288 192
WIRE 256 224 256 144
WIRE 256 256 256 224
WIRE 256 256 160 256
FLAG 160 112 x1
IOPIN 160 112 In
FLAG 160 192 y1
IOPIN 160 192 In
FLAG 352 112 x2
IOPIN 352 112 Out
FLAG 352 192 y2
IOPIN 352 192 Out
FLAG 160 256 gain
IOPIN 160 256 In
SYMBOL mul 240 144 R0
SYMATTR InstName U3
SYMBOL mul 240 224 R0
SYMATTR InstName U1
